Cases/test/data/branch_specific/scenario_results_case5.csv
line_id,y_cos_f_w1_vm_from,y_cos_f_w2_vm_to,y_cos_f_w3_theta_i,y_cos_f_w4_theta_j,y_cos_f_bias,y_sin_f_w1_vm_from,y_sin_f_w2_vm_to,y_sin_f_w3_theta_i,y_sin_f_w4_theta_j,y_sin_f_bias
1_2,0.07204789471059757,1.0000549576312385,0.007377117639144011,0.2715231307389052,-0.09048918143274531,-0.23896916028916793,-0.0025629969588581714,-0.12941825173945465,-0.9096799348436698,0.3472295611690944
1_4,-0.13622843131131646,0.9965107587331856,-0.11343973533400346,1.1857221601085567e-34,0.18074063911411153,0.5456776791359497,-0.02037179110074494,0.3320668252138872,-4.778406198402109e-34,-0.57054668487459
1_5,-0.057072845235597525,0.9986088610790629,-0.06532064514972433,0.003631627971852281,0.07996509468851776,0.5193792074534405,0.010262530376705326,0.31306491128053515,-0.03336345064328735,-0.6436892729275989
2_3,0.5001821314762313,0.4998653429714038,-0.0011155065807229025,-0.0017673979840408527,-0.00020580926769198093,0.022535586821534725,-0.020121236854695072,-0.21475149883259204,-0.3675522873819881,-0.010999562810282245
3_4,-0.011808493562226671,0.011579739626347355,0.11314137628076047,-1.5216013652396151e-35,1.1725703779197278,-0.11843742802176216,0.11831652444820931,1.1453014645155468,-1.5402785999400852e-34,0.009132892367827258
4_5,12.556477456714916,-13.555696149894148,-1.6939619581299298e-31,-12.420552256342587,3.187073034615316,0.3396865910648216,-0.40217945289838153,-4.812667494618893e-33,-0.35287683901452105,0.025843225067864184
